function mpc = case118_v2

%% MATPOWER Case Format : Version 2
mpc.version = '2';

%%-----  Power Flow Data  -----%%
%% system MVA base
mpc.baseMVA = 1;

%% bus data
%	bus_i	type	Pd	Qd	Gs	Bs	area	Vm	Va	baseKV	zone	Vmax	Vmin
mpc.bus = [
	1	2	51	27	0	0	1	0.955	-24.9072521	138	1	1.06	0.94;
	2	1	20	9	0	0	1	0.980471643	-23.8440455	138	1	1.06	0.94;
	3	1	39	10	0	0	1	0.961572075	-23.5472775	138	1	1.06	0.94;
	4	2	39	12	0	0	1	0.998	-18.024976	138	1	1.06	0.94;
	5	1	0	0	0	0	1	1.00023823	-17.8658843	138	1	1.06	0.94;
	6	2	52	22	0	0	1	0.99	-20.0732328	138	1	1.06	0.94;
	7	1	19	2	0	0	1	0.988689465	-20.2991964	138	1	1.06	0.94;
	8	2	28	0	0	0	1	1.015	-12.9304254	138	1	1.06	0.94;
	9	1	0	0	0	0	1	1.02304268	-5.44582593	138	1	1.06	0.94;
	10	2	0	0	0	0	1	1.05	2.19342002	138	1	1.06	0.94;
	11	1	70	23	0	0	1	0.980390161	-22.8393284	138	1	1.06	0.94;
	12	2	47	10	0	0	1	0.99	-23.2161603	138	1	1.06	0.94;
	13	1	34	16	0	0	1	0.960077319	-24.1356471	138	1	1.06	0.94;
	14	1	14	1	0	0	1	0.986182228	-23.7844206	138	1	1.06	0.94;
	15	2	90	30	0	0	1	0.97	-23.0624096	138	1	1.06	0.94;
	16	1	25	10	0	0	1	0.948926811	-23.1452573	138	1	1.06	0.94;
	17	1	11	3	0	0	1	0.980795394	-20.6521401	138	1	1.06	0.94;
	18	2	60	34	0	0	1	0.973	-23.9468325	138	1	1.06	0.94;
	19	2	45	25	0	0	1	0.962	-25.2311281	138	1	1.06	0.94;
	20	1	18	3	0	0	1	0.91971019	-21.2994511	138	1	1.06	0.94;
	21	1	14	8	0	0	1	0.926199644	-20.3084369	138	1	1.06	0.94;
	22	1	10	5	0	0	1	0.945816225	-18.4282913	138	1	1.06	0.94;
	23	1	7	3	0	0	1	0.992907998	-14.6851162	138	1	1.06	0.94;
	24	2	13	0	0	0	1	0.992	-15.071169	138	1	1.06	0.94;
	25	2	0	0	0	0	1	1.05	-7.09232056	138	1	1.06	0.94;
	26	2	0	0	0	0	1	1.015	-4.97807302	138	1	1.06	0.94;
	27	2	71	13	0	0	1	0.968	-19.4142525	138	1	1.06	0.94;
	28	1	17	7	0	0	1	0.948589101	-21.4716784	138	1	1.06	0.94;
	29	1	24	4	0	0	1	0.938224635	-22.8677897	138	1	1.06	0.94;
	30	1	0	0	0	0	1	0.987267752	-15.2667103	138	1	1.06	0.94;
	31	2	43	27	0	0	1	0.967	-25.0049733	138	1	1.06	0.94;
	32	2	59	23	0	0	1	0.963	-22.5346344	138	1	1.06	0.94;
	33	1	23	9	0	0	1	0.958660654	-24.3004915	138	1	1.06	0.94;
	34	2	59	26	0	0	1	0.984	-23.1056589	138	1	1.06	0.94;
	35	1	33	9	0	0	1	0.97396476	-23.4633784	138	1	1.06	0.94;
	36	2	31	17	0	0	1	0.98	-23.5763621	138	1	1.06	0.94;
	37	1	0	0	0	0	1	0.982411795	-22.5405192	138	1	1.06	0.94;
	38	1	0	0	0	0	1	0.978609167	-17.0999164	138	1	1.06	0.94;
	39	1	27	11	0	0	1	0.960910889	-24.063451	138	1	1.06	0.94;
	40	2	66	23	0	0	1	0.97	-29.9730753	138	1	1.06	0.94;
	41	1	37	10	0	0	1	0.953766449	-49.095428	138	1	1.06	0.94;
	42	2	96	23	0	0	1	0.985	-46.2980171	138	1	1.06	0.94;
	43	1	18	7	0	0	1	0.88745342	-34.1626432	138	1	1.06	0.94;
	44	1	16	8	0	0	1	0.920241686	-31.3611134	138	1	1.06	0.94;
	45	1	53	22	0	0	1	0.944877061	-29.5636864	138	1	1.06	0.94;
	46	2	28	10	0	0	1	1.005	-31.4490431	138	1	1.06	0.94;
	47	1	34	0	0	0	1	1.00206209	-5.22517654	138	1	1.06	0.94;
	48	1	20	11	0	0	1	1.01597741	-19.0120367	138	1	1.06	0.94;
	49	2	87	30	0	0	1	1.025	-18.5646705	138	1	1.06	0.94;
	50	1	17	4	0	0	1	1.0117842	-19.6663026	138	1	1.06	0.94;
	51	1	17	8	0	0	1	0.977018962	-21.8052995	138	1	1.06	0.94;
	52	1	18	5	0	0	1	0.970172446	-22.3837212	138	1	1.06	0.94;
	53	1	23	11	0	0	1	0.933769709	-35.7905844	138	1	1.06	0.94;
	54	2	113	32	0	0	1	0.955	-34.1733663	138	1	1.06	0.94;
	55	2	63	22	0	0	1	0.952	-25.0843299	138	1	1.06	0.94;
	56	2	84	18	0	0	1	0.954	-30.3251417	138	1	1.06	0.94;
	57	1	12	3	0	0	1	1.00198972	-20.4947432	138	1	1.06	0.94;
	58	1	12	3	0	0	1	0.971616041	-22.279889	138	1	1.06	0.94;
	59	2	277	113	0	0	1	0.985	-16.6309893	138	1	1.06	0.94;
	60	1	78	3	0	0	1	0.99246136	-9.92711063	138	1	1.06	0.94;
	61	2	0	0	0	0	1	0.995	-9.32073242	138	1	1.06	0.94;
	62	2	77	14	0	0	1	0.998	-15.6226197	138	1	1.06	0.94;
	63	1	0	0	0	0	1	0.985912438	-12.1091711	138	1	1.06	0.94;
	64	1	0	0	0	0	1	0.992243058	-9.79538392	138	1	1.06	0.94;
	65	2	0	0	0	0	1	1.005	-6.36778391	138	1	1.06	0.94;
	66	2	39	18	0	0	1	1.05	-6.42074634	138	1	1.06	0.94;
	67	1	28	7	0	0	1	1.03677806	-7.83415654	138	1	1.06	0.94;
	68	1	0	0	0	0	1	1.01016235	-4.02184092	138	1	1.06	0.94;
	69	3	0	0	0	0	1	1.035	0	138	1	1.06	0.94;
	70	2	66	20	0	0	1	0.984	-5.75677079	138	1	1.06	0.94;
	71	1	0	0	0	0	1	0.986261124	-6.19225985	138	1	1.06	0.94;
	72	2	12	0	0	0	1	0.98	-7.46478922	138	1	1.06	0.94;
	73	2	6	0	0	0	1	0.991	-6.41034789	138	1	1.06	0.94;
	74	2	68	27	0	0	1	0.958	-12.5665444	138	1	1.06	0.94;
	75	1	47	11	0	0	1	0.954733835	-10.6084551	138	1	1.06	0.94;
	76	2	68	36	0	0	1	0.943	-16.3364989	138	1	1.06	0.94;
	77	2	61	28	0	0	1	1.006	-10.6952027	138	1	1.06	0.94;
	78	1	71	26	0	0	1	1.00007641	-11.1409184	138	1	1.06	0.94;
	79	1	39	32	0	0	1	1.01147545	-5.73382742	138	1	1.06	0.94;
	80	2	130	26	0	0	1	1.04	-4.51018632	138	1	1.06	0.94;
	81	1	0	0	0	0	1	1.02053565	-4.23096601	138	1	1.06	0.94;
	82	1	54	27	0	0	1	0.963627043	-11.0827213	138	1	1.06	0.94;
	83	1	20	10	0	0	1	0.962437248	-10.2607571	138	1	1.06	0.94;
	84	1	11	7	0	0	1	0.976994155	-5.7901806	138	1	1.06	0.94;
	85	2	24	15	0	0	1	0.985	-5.49624008	138	1	1.06	0.94;
	86	1	21	10	0	0	1	0.983920414	-6.82412619	138	1	1.06	0.94;
	87	2	0	0	0	0	1	1.015	-6.5861684	138	1	1.06	0.94;
	88	1	48	10	0	0	1	0.990530946	3.47232812	138	1	1.06	0.94;
	89	2	0	0	0	0	1	1.005	5.3596914	138	1	1.06	0.94;
	90	2	163	42	0	0	1	0.985	-4.56427993	138	1	1.06	0.94;
	91	2	10	0	0	0	1	0.98	-3.4889634	138	1	1.06	0.94;
	92	2	65	10	0	0	1	0.99	-2.84320153	138	1	1.06	0.94;
	93	1	12	7	0	0	1	0.980753973	-3.33712333	138	1	1.06	0.94;
	94	1	30	16	0	0	1	0.967954857	-18.3121649	138	1	1.06	0.94;
	95	1	42	31	0	0	1	0.947795538	-19.1950345	138	1	1.06	0.94;
	96	1	38	15	0	0	1	0.997080952	-8.03868716	138	1	1.06	0.94;
	97	1	15	9	0	0	1	1.02909488	-5.17204826	138	1	1.06	0.94;
	98	1	34	8	0	0	1	1.02308869	-6.38532077	138	1	1.06	0.94;
	99	2	42	0	0	0	1	1.01	-23.7542733	138	1	1.06	0.94;
	100	2	37	18	0	0	1	1.017	-21.8360834	138	1	1.06	0.94;
	101	1	22	15	0	0	1	0.952091242	-4.89946351	138	1	1.06	0.94;
	102	1	5	3	0	0	1	0.9756691	-3.60716644	138	1	1.06	0.94;
	103	2	23	16	0	0	1	1.01	-23.5785774	138	1	1.06	0.94;
	104	2	38	25	0	0	1	0.971	-38.3367357	138	1	1.06	0.94;
	105	2	31	26	0	0	1	0.965	-40.5428848	138	1	1.06	0.94;
	106	1	43	16	0	0	1	0.946464981	-27.1288046	138	1	1.06	0.94;
	107	2	50	12	0	0	1	0.952	-46.6088663	138	1	1.06	0.94;
	108	1	2	1	0	0	1	0.959308761	-40.9133683	138	1	1.06	0.94;
	109	1	8	3	0	0	1	0.957526928	-41.037433	138	1	1.06	0.94;
	110	2	39	30	0	0	1	0.973	-31.3094352	138	1	1.06	0.94;
	111	2	0	0	0	0	1	0.98	-29.6643543	138	1	1.06	0.94;
	112	2	68	13	0	0	1	0.975	-34.4086528	138	1	1.06	0.94;
	113	2	6	0	0	0	1	0.993	-23.8770366	138	1	1.06	0.94;
	114	1	8	3	0	0	1	0.959950981	-22.8129849	138	1	1.06	0.94;
	115	1	22	7	0	0	1	0.958697023	-20.3499005	138	1	1.06	0.94;
	116	2	184	0	0	0	1	1.005	-4.42091366	138	1	1.06	0.94;
	117	1	20	8	0	0	1	0.971351066	-24.7277984	138	1	1.06	0.94;
	118	1	33	15	0	0	1	0.941882621	-11.4812606	138	1	1.06	0.94;
];

%% generator data
%	bus	Pg	Qg	Qmax	Qmin	Vg	mBase	status	Pmax	Pmin	Pc1	Pc2	Qc1min	Qc1max	Qc2min	Qc2max	ramp_agc	ramp_10	ramp_30	ramp_q	apf
mpc.gen = [
	1	0	28.3239177	15	-5	0.955	100	1	100	0	0	0	0	0	0	0	0	0	0	0	0;
	4	0	-7.3422194	300	-300	0.998	100	1	100	0	0	0	0	0	0	0	0	0	0	0	0;
	6	0	22.3183304	50	-13	0.99	100	1	100	0	0	0	0	0	0	0	0	0	0	0	0;
	8	0	157.899647	300	-300	1.015	100	1	100	0	0	0	0	0	0	0	0	0	0	0	0;
	10	450	81.456425	200	-147	1.05	100	1	550	0	0	0	0	0	0	0	0	0	0	0	0;
	12	85	82.7343855	120	-35	0.99	100	1	185	0	0	0	0	0	0	0	0	0	0	0	0;
	15	0	35.1490583	30	-10	0.97	100	1	100	0	0	0	0	0	0	0	0	0	0	0	0;
	18	0	59.655261	50	-16	0.973	100	1	100	0	0	0	0	0	0	0	0	0	0	0	0;
	19	0	14.226448	24	-8	0.962	100	1	100	0	0	0	0	0	0	0	0	0	0	0	0;
	24	0	1.78175725	300	-300	0.992	100	1	100	0	0	0	0	0	0	0	0	0	0	0	0;
	25	220	188.665653	140	-47	1.05	100	1	320	0	0	0	0	0	0	0	0	0	0	0	0;
	26	314	-59.2419086	1000	-1000	1.015	100	1	414	0	0	0	0	0	0	0	0	0	0	0	0;
	27	0	25.7374717	300	-300	0.968	100	1	100	0	0	0	0	0	0	0	0	0	0	0	0;
	31	7	42.6968658	300	-300	0.967	100	1	107	0	0	0	0	0	0	0	0	0	0	0	0;
	32	0	8.94765057	42	-14	0.963	100	1	100	0	0	0	0	0	0	0	0	0	0	0	0;
	34	0	72.3646697	24	-8	0.984	100	1	100	0	0	0	0	0	0	0	0	0	0	0	0;
	36	0	12.5695579	24	-8	0.98	100	1	100	0	0	0	0	0	0	0	0	0	0	0	0;
	40	0	43.8960288	300	-300	0.97	100	1	100	0	0	0	0	0	0	0	0	0	0	0	0;
	42	0	88.4776471	300	-300	0.985	100	1	100	0	0	0	0	0	0	0	0	0	0	0	0;
	46	19	57.5941106	100	-100	1.005	100	1	119	0	0	0	0	0	0	0	0	0	0	0	0;
	49	204	199.803606	210	-85	1.025	100	1	304	0	0	0	0	0	0	0	0	0	0	0	0;
	54	48	55.5469651	300	-300	0.955	100	1	148	0	0	0	0	0	0	0	0	0	0	0	0;
	55	0	25.9977658	23	-8	0.952	100	1	100	0	0	0	0	0	0	0	0	0	0	0	0;
	56	0	45.0252293	15	-8	0.954	100	1	100	0	0	0	0	0	0	0	0	0	0	0	0;
	59	155	133.566934	180	-60	0.985	100	1	255	0	0	0	0	0	0	0	0	0	0	0	0;
	61	160	-2.1156159	300	-100	0.995	100	1	260	0	0	0	0	0	0	0	0	0	0	0	0;
	62	0	13.405223	20	-20	0.998	100	1	100	0	0	0	0	0	0	0	0	0	0	0	0;
	65	391	-64.5492137	200	-67	1.005	100	1	491	0	0	0	0	0	0	0	0	0	0	0	0;
	66	392	173.338699	200	-67	1.05	100	1	492	0	0	0	0	0	0	0	0	0	0	0	0;
	69	579.415382	123.563847	300	-300	1.035	100	1	805.2	0	0	0	0	0	0	0	0	0	0	0	0;
	70	0	-6.29018237	32	-10	0.984	100	1	100	0	0	0	0	0	0	0	0	0	0	0	0;
	72	0	-0.303070219	100	-100	0.98	100	1	100	0	0	0	0	0	0	0	0	0	0	0	0;
	73	0	11.5041997	100	-100	0.991	100	1	100	0	0	0	0	0	0	0	0	0	0	0	0;
	74	0	56.6232831	9	-6	0.958	100	1	100	0	0	0	0	0	0	0	0	0	0	0	0;
	76	0	19.3631977	23	-8	0.943	100	1	100	0	0	0	0	0	0	0	0	0	0	0	0;
	77	0	142.596444	70	-20	1.006	100	1	100	0	0	0	0	0	0	0	0	0	0	0	0;
	80	477	154.641307	280	-165	1.04	100	1	577	0	0	0	0	0	0	0	0	0	0	0	0;
	85	0	33.4213393	23	-8	0.985	100	1	100	0	0	0	0	0	0	0	0	0	0	0	0;
	87	4	14.6688488	1000	-100	1.015	100	1	104	0	0	0	0	0	0	0	0	0	0	0	0;
	89	607	8.15646066	300	-210	1.005	100	1	707	0	0	0	0	0	0	0	0	0	0	0	0;
	90	0	76.0079663	300	-300	0.985	100	1	100	0	0	0	0	0	0	0	0	0	0	0	0;
	91	0	-4.61350579	100	-100	0.98	100	1	100	0	0	0	0	0	0	0	0	0	0	0	0;
	92	0	73.304977	9	-3	0.99	100	1	100	0	0	0	0	0	0	0	0	0	0	0	0;
	99	0	1.31068304	100	-100	1.01	100	1	100	0	0	0	0	0	0	0	0	0	0	0	0;
	100	252	158.802717	155	-50	1.017	100	1	352	0	0	0	0	0	0	0	0	0	0	0	0;
	103	40	30.4895329	40	-15	1.01	100	1	140	0	0	0	0	0	0	0	0	0	0	0	0;
	104	0	44.7757156	23	-8	0.971	100	1	100	0	0	0	0	0	0	0	0	0	0	0	0;
	105	0	35.7166715	23	-8	0.965	100	1	100	0	0	0	0	0	0	0	0	0	0	0	0;
	107	0	22.5288615	200	-200	0.952	100	1	100	0	0	0	0	0	0	0	0	0	0	0	0;
	110	0	4.96791184	23	-8	0.973	100	1	100	0	0	0	0	0	0	0	0	0	0	0	0;
	111	36	-0.883424785	1000	-100	0.98	100	1	136	0	0	0	0	0	0	0	0	0	0	0	0;
	112	0	44.4586309	1000	-100	0.975	100	1	100	0	0	0	0	0	0	0	0	0	0	0	0;
	113	0	16.6218963	200	-100	0.993	100	1	100	0	0	0	0	0	0	0	0	0	0	0	0;
	116	0	-112.047725	1000	-1000	1.005	100	1	100	0	0	0	0	0	0	0	0	0	0	0	0;
];

%% branch data
%	fbus	tbus	r	x	b	rateA	rateB	rateC	ratio	angle	status	angmin	angmax	Pf	Qf	Pt	Qt
mpc.branch = [
	1	3	0.000129	0.000424	0	9900	0	0	0	0	1	-360	360	-51.0000	1.3239	51.3681	-0.1139;
	2	12	0.000187	0.000616	0	9900	0	0	0	0	1	-360	360	-20.0000	-9.0000	20.0936	9.3082;
	3	5	0.000241	0.00108	0	9900	0	0	0	0	1	-360	360	-90.3681	-9.8861	92.5222	19.5390;
	4	5	1.76e-05	7.98e-05	0	9900	0	0	0	0	1	-360	360	-39.0000	-19.3422	39.0335	19.4941;
	5	6	0.000119	0.00054	0	9900	0	0	0	0	1	-360	360	71.6299	4.5398	-71.0171	-1.7593;
	8	5	0	0.000267	0	9900	0	0	0	0	1	-360	360	327.1342	70.2152	-327.1342	-41.2023;
	5	11	0.000203	0.000682	0	9900	0	0	0	0	1	-360	360	123.9487	-2.3705	-120.8303	12.8471;
	6	7	4.59e-05	0.000208	0	9900	0	0	0	0	1	-360	360	19.0171	2.0777	-19.0000	-2.0000;
	8	9	2.44e-05	0.000305	0	9900	0	0	0	0	1	-360	360	-440.4775	37.4803	445.1060	20.3757;
	8	30	4.31e-05	0.000504	0	9900	0	0	0	0	1	-360	360	85.3433	50.2041	-84.9331	-45.4079;
	9	10	2.58e-05	0.000322	0	9900	0	0	0	0	1	-360	360	-445.1060	-20.3757	450.0000	81.4564;
	11	12	5.95e-05	0.000196	0	9900	0	0	0	0	1	-360	360	16.4894	-52.9669	-16.2989	53.5945;
	11	13	0.0002225	0.000731	0	9900	0	0	0	0	1	-360	360	34.3408	17.1198	-34.0000	-16.0000;
	12	14	0.000215	0.000707	0	9900	0	0	0	0	1	-360	360	14.0436	1.1432	-14.0000	-1.0000;
	12	117	0.000329	0.0014	0	9900	0	0	0	0	1	-360	360	20.1618	8.6885	-20.0000	-8.0000;
	15	17	0.000132	0.000437	0	9900	0	0	0	0	1	-360	360	-90.0000	5.1491	91.1401	-1.3747;
	16	17	0.000454	0.001801	0	9900	0	0	0	0	1	-360	360	-25.0000	-10.0000	25.3655	11.4501;
	17	18	0.000123	0.000505	0	9900	0	0	0	0	1	-360	360	106.7229	-7.7305	-105.2589	13.7411;
	30	17	0	0.000388	0	9900	0	0	0	0	1	-360	360	234.2285	27.4850	-234.2285	-5.3449;
	18	19	0.0001119	0.000493	0	9900	0	0	0	0	1	-360	360	45.2589	11.9141	-45.0000	-10.7736;
	20	21	0.000183	0.000849	0	9900	0	0	0	0	1	-360	360	-18.0000	-3.0000	18.0720	3.3342;
	21	22	0.000209	0.00097	0	9900	0	0	0	0	1	-360	360	-32.0720	-11.3342	32.3539	12.6426;
	22	23	0.000342	0.00159	0	9900	0	0	0	0	1	-360	360	-42.3539	-17.6426	43.1587	21.3842;
	23	24	0.000135	0.000492	0	9900	0	0	0	0	1	-360	360	13.0236	-1.6957	-13.0000	1.7818;
	23	25	0.000156	0.0008	0	9900	0	0	0	0	1	-360	360	-177.0501	-24.9079	182.1084	50.8483;
	23	32	0.000317	0.001153	0	9900	0	0	0	0	1	-360	360	113.8677	2.2194	-109.6970	12.9503;
	26	25	0	0.000382	0	9900	0	0	0	0	1	-360	360	102.9264	-91.0981	-102.9264	98.1034;
	25	27	0.000318	0.00163	0	9900	0	0	0	0	1	-360	360	140.8179	39.7139	-134.6434	-8.0648;
	26	30	7.99e-05	0.00086	0	9900	0	0	0	0	1	-360	360	211.0736	31.8562	-207.5397	6.1816;
	27	28	0.0001913	0.000855	0	9900	0	0	0	0	1	-360	360	41.5483	13.3725	-41.1594	-11.6342;
	27	115	0.000164	0.000741	0	9900	0	0	0	0	1	-360	360	22.0951	7.4297	-22.0000	-7.0000;
	28	29	0.000237	0.000943	0	9900	0	0	0	0	1	-360	360	24.1594	4.6342	-24.0000	-4.0000;
	30	38	4.64e-05	0.00054	0	9900	0	0	0	0	1	-360	360	58.2443	11.7413	-58.0763	-9.7855;
	31	32	0.000298	0.000985	0	9900	0	0	0	0	1	-360	360	-36.0000	15.6969	36.4915	-14.0721;
	32	113	0.000615	0.00203	0	9900	0	0	0	0	1	-360	360	6.1948	-15.9790	-6.0000	16.6219;
	32	114	0.000135	0.000612	0	9900	0	0	0	0	1	-360	360	8.0107	3.0485	-8.0000	-3.0000;
	33	37	0.000415	0.00142	0	9900	0	0	0	0	1	-360	360	-23.0000	-9.0000	23.2755	9.9425;
	34	36	8.71e-05	0.000268	0	9900	0	0	0	0	1	-360	360	31.0889	4.7041	-31.0000	-4.4304;
	34	37	2.56e-05	9.4e-05	0	9900	0	0	0	0	1	-360	360	-90.0889	41.6606	90.3494	-40.7042;
	35	37	0.00011	0.000497	0	9900	0	0	0	0	1	-360	360	-33.0000	-9.0000	33.1357	9.6130;
	38	37	0	0.000375	0	9900	0	0	0	0	1	-360	360	243.0766	1.6261	-243.0766	21.5115;
	37	39	0.000321	0.00106	0	9900	0	0	0	0	1	-360	360	27.2955	11.9758	-27.0000	-11.0000;
	37	40	0.000593	0.00168	0	9900	0	0	0	0	1	-360	360	69.0206	-12.3386	-66.0000	20.8960;
	38	65	9.01e-05	0.000986	0	9900	0	0	0	0	1	-360	360	-185.0003	8.1594	188.2265	27.1465;
	41	42	0.00041	0.00135	0	9900	0	0	0	0	1	-360	360	-37.0000	-10.0000	37.6621	12.1801;
	42	49	0.000715	0.00323	0	9900	0	0	0	0	1	-360	360	-133.6621	53.2976	148.9214	15.6359;
	43	44	0.000608	0.002454	0	9900	0	0	0	0	1	-360	360	-18.0000	-7.0000	18.2880	8.1622;
	44	45	0.000224	0.000901	0	9900	0	0	0	0	1	-360	360	-34.2880	-16.1622	34.6680	17.6910;
	45	46	0.0004	0.001356	0	9900	0	0	0	0	1	-360	360	9.9292	-44.4442	-9.0000	47.5941;
	45	49	0.000684	0.00186	0	9900	0	0	0	0	1	-360	360	-97.5972	4.7532	104.9121	15.1382;
	47	69	0.000844	0.002778	0	9900	0	0	0	0	1	-360	360	-34.0000	0.0000	34.9717	3.1982;
	48	49	0.000179	0.000505	0	9900	0	0	0	0	1	-360	360	-20.0000	-11.0000	20.0903	11.2549;
	49	50	0.000267	0.000752	0	9900	0	0	0	0	1	-360	360	29.3062	7.8632	-29.0722	-7.2042;
	49	51	0.000486	0.00137	0	9900	0	0	0	0	1	-360	360	48.3827	19.9036	-47.1166	-16.3346;
	49	54	0.00073	0.00289	0	9900	0	0	0	0	1	-360	360	94.5305	13.4401	-88.1961	11.6375;
	49	66	0.00018	0.000919	0	9900	0	0	0	0	1	-360	360	-237.5783	44.8565	247.5933	6.2756;
	49	69	0.000985	0.00324	0	9900	0	0	0	0	1	-360	360	-91.5649	41.7112	101.0565	-10.4901;
	50	57	0.000474	0.00134	0	9900	0	0	0	0	1	-360	360	12.0722	3.2042	-12.0000	-3.0000;
	51	52	0.000203	0.000588	0	9900	0	0	0	0	1	-360	360	18.0753	5.2180	-18.0000	-5.0000;
	51	58	0.000255	0.000719	0	9900	0	0	0	0	1	-360	360	12.0413	3.1165	-12.0000	-3.0000;
	53	54	0.000263	0.00122	0	9900	0	0	0	0	1	-360	360	-23.0000	-11.0000	23.1961	11.9095;
	55	59	0.0004739	0.002158	0	9900	0	0	0	0	1	-360	360	-63.0000	3.9978	65.0837	5.4909;
	56	59	0.000803	0.00239	0	9900	0	0	0	0	1	-360	360	-84.0000	27.0252	90.8699	-6.5779;
	59	61	0.000328	0.0015	0	9900	0	0	0	0	1	-360	360	-79.6061	16.1514	81.8367	-5.9507;
	63	59	0	0.000386	0	9900	0	0	0	0	1	-360	360	198.3475	10.1614	-198.3475	5.5025;
	60	61	2.64e-05	0.000135	0	9900	0	0	0	0	1	-360	360	-78.0000	-3.0000	78.1633	3.8351;
	62	66	0.000482	0.00218	0	9900	0	0	0	0	1	-360	360	-77.0000	-0.5948	79.8694	13.5726;
	63	64	1.72e-05	0.0002	0	9900	0	0	0	0	1	-360	360	-198.3475	-10.1614	199.0455	18.2775;
	64	65	2.69e-05	0.000302	0	9900	0	0	0	0	1	-360	360	-199.0455	-18.2775	200.1371	30.5328;
	65	66	0	0.00037	0	9900	0	0	0	0	1	-360	360	2.6363	-122.2285	-2.6363	127.7039;
	66	67	0.000224	0.001015	0	9900	0	0	0	0	1	-360	360	28.1736	7.7866	-28.0000	-7.0000;
	68	69	0	0.00037	0	9900	0	0	0	0	1	-360	360	-198.1871	-60.8523	198.1871	76.4370;
	68	81	1.75e-05	0.000202	0	9900	0	0	0	0	1	-360	360	14.0309	-53.0564	-13.9792	53.6526;
	68	116	3.4e-06	4.05e-05	0	9900	0	0	0	0	1	-360	360	184.1562	113.9087	-184.0000	-112.0477;
	69	70	0.0003	0.00127	0	9900	0	0	0	0	1	-360	360	86.3900	25.2002	-84.1221	-15.5992;
	69	75	0.000405	0.00122	0	9900	0	0	0	0	1	-360	360	158.8101	29.2186	-148.9521	0.4771;
	70	71	8.82e-05	0.000355	0	9900	0	0	0	0	1	-360	360	18.1221	-10.6909	-18.0818	10.8532;
	71	72	0.000446	0.0018	0	9900	0	0	0	0	1	-360	360	12.0669	0.5731	-12.0000	-0.3031;
	71	73	8.66e-05	0.000454	0	9900	0	0	0	0	1	-360	360	6.0148	-11.4264	-6.0000	11.5042;
	74	75	0.000123	0.000406	0	9900	0	0	0	0	1	-360	360	-68.0000	29.6233	68.7373	-27.1895;
	75	118	0.000145	0.000481	0	9900	0	0	0	0	1	-360	360	33.2148	15.7124	-33.0000	-15.0000;
	76	77	0.000444	0.00148	0	9900	0	0	0	0	1	-360	360	-68.0000	-16.6368	70.4469	24.7933;
	77	78	3.76e-05	0.000124	0	9900	0	0	0	0	1	-360	360	71.2149	26.7088	-71.0000	-26.0000;
	77	80	0.00017	0.000485	0	9900	0	0	0	0	1	-360	360	-225.0797	20.9269	233.6632	3.5613;
	77	82	0.000298	0.000853	0	9900	0	0	0	0	1	-360	360	22.4179	42.1675	-21.7463	-40.2452;
	79	80	0.000156	0.000704	0	9900	0	0	0	0	1	-360	360	-39.0000	-32.0000	39.3881	33.7513;
	81	80	0	0.00037	0	9900	0	0	0	0	1	-360	360	13.9792	-53.6526	-13.9792	54.7447;
	80	96	0.000356	0.00182	0	9900	0	0	0	0	1	-360	360	38.5976	18.0554	-38.0000	-15.0000;
	80	97	0.000183	0.000934	0	9900	0	0	0	0	1	-360	360	15.0529	9.2699	-15.0000	-9.0000;
	80	98	0.000238	0.00108	0	9900	0	0	0	0	1	-360	360	34.2774	9.2588	-34.0000	-8.0000;
	82	83	0.000112	0.0003665	0	9900	0	0	0	0	1	-360	360	-32.2537	13.2452	32.4003	-12.7654;
	83	85	0.00043	0.00148	0	9900	0	0	0	0	1	-360	360	-52.4003	2.7654	53.6785	1.6340;
	84	85	0.000302	0.000641	0	9900	0	0	0	0	1	-360	360	-11.0000	-7.0000	11.0538	7.1142;
	85	86	0.00035	0.00123	0	9900	0	0	0	0	1	-360	360	17.1751	-3.8111	-17.0635	4.2035;
	85	89	0.000239	0.00173	0	9900	0	0	0	0	1	-360	360	-105.9074	13.4842	108.7152	6.8398;
	86	87	0.0002828	0.002074	0	9900	0	0	0	0	1	-360	360	-3.9365	-14.2035	4.0000	14.6688;
	88	89	0.000139	0.000712	0	9900	0	0	0	0	1	-360	360	-48.0000	-10.0000	48.3406	11.7445;
	89	90	0.000238	0.000997	0	9900	0	0	0	0	1	-360	360	169.8012	-5.5173	-163.0000	34.0080;
	89	92	9.9e-05	0.000505	0	9900	0	0	0	0	1	-360	360	280.1430	-4.9106	-272.4483	44.1617;
	91	92	0.000387	0.001272	0	9900	0	0	0	0	1	-360	360	-10.0000	-4.6135	10.0489	4.7741;
	92	93	0.000258	0.000848	0	9900	0	0	0	0	1	-360	360	12.0518	7.1702	-12.0000	-7.0000;
	92	94	0.000481	0.00158	0	9900	0	0	0	0	1	-360	360	158.0136	-12.3205	-145.6855	52.8161;
	92	102	0.000123	0.000559	0	9900	0	0	0	0	1	-360	360	27.3340	19.5194	-27.1924	-18.8760;
	94	95	0.000132	0.000434	0	9900	0	0	0	0	1	-360	360	42.4004	32.3165	-42.0000	-31.0000;
	94	100	0.000178	0.00058	0	9900	0	0	0	0	1	-360	360	73.2851	-101.1327	-70.3217	110.7887;
	99	100	0.00018	0.000813	0	9900	0	0	0	0	1	-360	360	-42.0000	1.3107	42.3116	0.0966;
	100	103	0.00016	0.000525	0	9900	0	0	0	0	1	-360	360	58.4704	-3.3548	-57.9398	5.0959;
	100	104	0.000451	0.00204	0	9900	0	0	0	0	1	-360	360	140.1180	11.8911	-131.4954	27.1115;
	100	106	0.000605	0.00229	0	9900	0	0	0	0	1	-360	360	44.4217	21.3812	-43.0000	-16.0000;
	101	102	0.000246	0.00112	0	9900	0	0	0	0	1	-360	360	-22.0000	-15.0000	22.1924	15.8760;
	103	110	0.0003906	0.001813	0	9900	0	0	0	0	1	-360	360	74.9398	9.3936	-72.7556	0.7443;
	104	105	9.94e-05	0.000378	0	9900	0	0	0	0	1	-360	360	93.4954	-7.3358	-92.5682	10.8619;
	105	107	0.00053	0.00183	0	9900	0	0	0	0	1	-360	360	51.5268	-5.2570	-50.0000	10.5289;
	105	108	0.000261	0.000703	0	9900	0	0	0	0	1	-360	360	10.0414	4.1118	-10.0084	-4.0229;
	108	109	0.000105	0.000288	0	9900	0	0	0	0	1	-360	360	8.0084	3.0229	-8.0000	-3.0000;
	110	111	0.00022	0.000755	0	9900	0	0	0	0	1	-360	360	-35.7029	1.9029	36.0000	-0.8834;
	110	112	0.000247	0.00064	0	9900	0	0	0	0	1	-360	360	69.4586	-27.6793	-68.0000	31.4586;
];

%%-----  OPF Data  -----%%
%% generator cost data
%	1	startup	shutdown	n	x1	y1	...	xn	yn
%	2	startup	shutdown	n	c(n-1)	...	c0
mpc.gencost = [
	2	0	0	3	0.01	40	0;
	2	0	0	3	0.01	40	0;
	2	0	0	3	0.01	40	0;
	2	0	0	3	0.01	40	0;
	2	0	0	3	0.0222222	20	0;
	2	0	0	3	0.117647	20	0;
	2	0	0	3	0.01	40	0;
	2	0	0	3	0.01	40	0;
	2	0	0	3	0.01	40	0;
	2	0	0	3	0.01	40	0;
	2	0	0	3	0.0454545	20	0;
	2	0	0	3	0.0318471	20	0;
	2	0	0	3	0.01	40	0;
	2	0	0	3	1.42857	20	0;
	2	0	0	3	0.01	40	0;
	2	0	0	3	0.01	40	0;
	2	0	0	3	0.01	40	0;
	2	0	0	3	0.01	40	0;
	2	0	0	3	0.01	40	0;
	2	0	0	3	0.526316	20	0;
	2	0	0	3	0.0490196	20	0;
	2	0	0	3	0.208333	20	0;
	2	0	0	3	0.01	40	0;
	2	0	0	3	0.01	40	0;
	2	0	0	3	0.0645161	20	0;
	2	0	0	3	0.0625	20	0;
	2	0	0	3	0.01	40	0;
	2	0	0	3	0.0255754	20	0;
	2	0	0	3	0.0255102	20	0;
	2	0	0	3	0.0193648	20	0;
	2	0	0	3	0.01	40	0;
	2	0	0	3	0.01	40	0;
	2	0	0	3	0.01	40	0;
	2	0	0	3	0.01	40	0;
	2	0	0	3	0.01	40	0;
	2	0	0	3	0.01	40	0;
	2	0	0	3	0.0209644	20	0;
	2	0	0	3	0.01	40	0;
	2	0	0	3	2.5	20	0;
	2	0	0	3	0.0164745	20	0;
	2	0	0	3	0.01	40	0;
	2	0	0	3	0.01	40	0;
	2	0	0	3	0.01	40	0;
	2	0	0	3	0.01	40	0;
	2	0	0	3	0.0396825	20	0;
	2	0	0	3	0.25	20	0;
	2	0	0	3	0.01	40	0;
	2	0	0	3	0.01	40	0;
	2	0	0	3	0.01	40	0;
	2	0	0	3	0.01	40	0;
	2	0	0	3	0.277778	20	0;
	2	0	0	3	0.01	40	0;
	2	0	0	3	0.01	40	0;
	2	0	0	3	0.01	40	0;
];
